6057
  MOE2011           3D

 24 24  0  0  1  0  0  0  0  0999 V2000
   -1.8040   -1.3480   -1.4520 O   0  0  0  0  0  0  0  0  0  0  0  0
    4.1180   -0.7550   -0.3020 O   0  0  0  0  0  0  0  0  0  0  0  0
   -2.9080   -1.4180    0.4940 O   0  0  0  0  0  0  0  0  0  0  0  0
   -3.4270    1.4010   -0.1130 N   0  0  0  0  0  0  0  0  0  0  0  0
   -1.1230    1.1200    0.7710 C   0  0  0  0  0  0  0  0  0  0  0  0
   -2.1210    0.7510   -0.3380 C   0  0  1  0  0  0  0  0  0  0  0  0
    0.2760    0.6180    0.5020 C   0  0  0  0  0  0  0  0  0  0  0  0
    0.7630   -0.5210    1.1610 C   0  0  0  0  0  0  0  0  0  0  0  0
    1.1010    1.2750   -0.4230 C   0  0  0  0  0  0  0  0  0  0  0  0
   -2.3380   -0.7580   -0.3630 C   0  0  0  0  0  0  0  0  0  0  0  0
    2.0520   -0.9950    0.9030 C   0  0  0  0  0  0  0  0  0  0  0  0
    2.3880    0.8020   -0.6810 C   0  0  0  0  0  0  0  0  0  0  0  0
    2.8540   -0.3280   -0.0180 C   0  0  0  0  0  0  0  0  0  0  0  0
   -1.4680    0.7360    1.7410 H   0  0  0  0  0  0  0  0  0  0  0  0
   -1.0750    2.2120    0.8850 H   0  0  0  0  0  0  0  0  0  0  0  0
   -1.7540    1.0750   -1.3180 H   0  0  0  0  0  0  0  0  0  0  0  0
    0.1390   -1.0490    1.8800 H   0  0  0  0  0  0  0  0  0  0  0  0
    0.7460    2.1590   -0.9480 H   0  0  0  0  0  0  0  0  0  0  0  0
   -3.3020    2.4050    0.0150 H   0  0  0  0  0  0  0  0  0  0  0  0
   -3.8350    1.0490    0.7560 H   0  0  0  0  0  0  0  0  0  0  0  0
    2.4060   -1.8780    1.4250 H   0  0  0  0  0  0  0  0  0  0  0  0
    3.0240    1.3120   -1.3980 H   0  0  0  0  0  0  0  0  0  0  0  0
   -2.0040   -2.3010   -1.3510 H   0  0  0  0  0  0  0  0  0  0  0  0
    4.3100   -1.5440    0.2310 H   0  0  0  0  0  0  0  0  0  0  0  0
  1 10  1  0  0  0  0
  1 23  1  0  0  0  0
  2 13  1  0  0  0  0
  2 24  1  0  0  0  0
  3 10  2  0  0  0  0
  4  6  1  0  0  0  0
  4 19  1  0  0  0  0
  4 20  1  0  0  0  0
  5  6  1  0  0  0  0
  5  7  1  0  0  0  0
  5 14  1  0  0  0  0
  5 15  1  0  0  0  0
  6 10  1  0  0  0  0
  6 16  1  0  0  0  0
  7  8  2  0  0  0  0
  7  9  1  0  0  0  0
  8 11  1  0  0  0  0
  8 17  1  0  0  0  0
  9 12  2  0  0  0  0
  9 18  1  0  0  0  0
 11 13  2  0  0  0  0
 11 21  1  0  0  0  0
 12 13  1  0  0  0  0
 12 22  1  0  0  0  0
M  END
$$$$
6305
  MOE2011           3D

 27 28  0  0  1  0  0  0  0  0999 V2000
    3.3330   -1.0310    1.7240 O   0  0  0  0  0  0  0  0  0  0  0  0
    1.7990   -1.8570    0.3230 O   0  0  0  0  0  0  0  0  0  0  0  0
   -1.6050    2.0290    0.4400 N   0  0  0  0  0  0  0  0  0  0  0  0
    3.9100    0.6640   -0.5080 N   0  0  0  0  0  0  0  0  0  0  0  0
    0.1250    0.9650   -0.4840 C   0  0  0  0  0  0  0  0  0  0  0  0
    1.4930    0.6850   -1.0380 C   0  0  0  0  0  0  0  0  0  0  0  0
   -0.9950    0.0720   -0.4340 C   0  0  0  0  0  0  0  0  0  0  0  0
    2.5540    0.4840    0.0540 C   0  0  1  0  0  0  0  0  0  0  0  0
   -2.0580    0.7650    0.1480 C   0  0  0  0  0  0  0  0  0  0  0  0
   -0.2970    2.1620    0.0630 C   0  0  0  0  0  0  0  0  0  0  0  0
   -1.2080   -1.2650   -0.8320 C   0  0  0  0  0  0  0  0  0  0  0  0
   -3.3190    0.1900    0.3530 C   0  0  0  0  0  0  0  0  0  0  0  0
    2.4840   -0.9100    0.6730 C   0  0  0  0  0  0  0  0  0  0  0  0
   -2.4610   -1.8560   -0.6340 C   0  0  0  0  0  0  0  0  0  0  0  0
   -3.5000   -1.1360   -0.0500 C   0  0  0  0  0  0  0  0  0  0  0  0
    1.4580   -0.1800   -1.7120 H   0  0  0  0  0  0  0  0  0  0  0  0
    1.7670    1.5440   -1.6650 H   0  0  0  0  0  0  0  0  0  0  0  0
    2.4080    1.2120    0.8610 H   0  0  0  0  0  0  0  0  0  0  0  0
    0.2240    3.0990    0.2110 H   0  0  0  0  0  0  0  0  0  0  0  0
   -2.1640    2.7530    0.8700 H   0  0  0  0  0  0  0  0  0  0  0  0
   -0.4030   -1.8410   -1.2810 H   0  0  0  0  0  0  0  0  0  0  0  0
   -4.1310    0.7490    0.8070 H   0  0  0  0  0  0  0  0  0  0  0  0
   -2.6200   -2.8880   -0.9370 H   0  0  0  0  0  0  0  0  0  0  0  0
    4.5880    0.5040    0.2410 H   0  0  0  0  0  0  0  0  0  0  0  0
    4.0320    1.6350   -0.7960 H   0  0  0  0  0  0  0  0  0  0  0  0
   -4.4660   -1.6120    0.0960 H   0  0  0  0  0  0  0  0  0  0  0  0
    3.2180   -1.9570    2.0250 H   0  0  0  0  0  0  0  0  0  0  0  0
  1 13  1  0  0  0  0
  1 27  1  0  0  0  0
  2 13  2  0  0  0  0
  3  9  1  0  0  0  0
  3 10  1  0  0  0  0
  3 20  1  0  0  0  0
  4  8  1  0  0  0  0
  4 24  1  0  0  0  0
  4 25  1  0  0  0  0
  5  6  1  0  0  0  0
  5  7  1  0  0  0  0
  5 10  2  0  0  0  0
  6  8  1  0  0  0  0
  6 16  1  0  0  0  0
  6 17  1  0  0  0  0
  7  9  2  0  0  0  0
  7 11  1  0  0  0  0
  8 13  1  0  0  0  0
  8 18  1  0  0  0  0
  9 12  1  0  0  0  0
 10 19  1  0  0  0  0
 11 14  2  0  0  0  0
 11 21  1  0  0  0  0
 12 15  2  0  0  0  0
 12 22  1  0  0  0  0
 14 15  1  0  0  0  0
 14 23  1  0  0  0  0
 15 26  1  0  0  0  0
M  END
$$$$
6287
  MOE2011           3D

 19 18  0  0  1  0  0  0  0  0999 V2000
   -1.4050   -1.5110   -0.1020 O   0  0  0  0  0  0  0  0  0  0  0  0
   -1.8420    0.4060    0.9490 O   0  0  0  0  0  0  0  0  0  0  0  0
   -0.2070    1.8070   -0.9080 N   0  0  0  0  0  0  0  0  0  0  0  0
    1.3700    0.0370   -0.1930 C   0  0  0  0  0  0  0  0  0  0  0  0
   -0.0390    0.3490   -0.7470 C   0  0  1  0  0  0  0  0  0  0  0  0
    1.6820   -1.4620   -0.2150 C   0  0  0  0  0  0  0  0  0  0  0  0
    1.6080    0.5960    1.2150 C   0  0  0  0  0  0  0  0  0  0  0  0
   -1.1690   -0.2000    0.1300 C   0  0  0  0  0  0  0  0  0  0  0  0
    2.1000    0.5160   -0.8600 H   0  0  0  0  0  0  0  0  0  0  0  0
   -0.1560   -0.0930   -1.7450 H   0  0  0  0  0  0  0  0  0  0  0  0
    1.4910   -1.8870   -1.2060 H   0  0  0  0  0  0  0  0  0  0  0  0
    1.0880   -2.0140    0.5190 H   0  0  0  0  0  0  0  0  0  0  0  0
    2.7380   -1.6350    0.0220 H   0  0  0  0  0  0  0  0  0  0  0  0
    0.9400    0.1350    1.9500 H   0  0  0  0  0  0  0  0  0  0  0  0
    2.6380    0.4000    1.5350 H   0  0  0  0  0  0  0  0  0  0  0  0
    1.4570    1.6790    1.2470 H   0  0  0  0  0  0  0  0  0  0  0  0
   -1.1450    2.0100   -1.2550 H   0  0  0  0  0  0  0  0  0  0  0  0
    0.4470    2.1520   -1.6080 H   0  0  0  0  0  0  0  0  0  0  0  0
   -2.1410   -1.7410    0.5040 H   0  0  0  0  0  0  0  0  0  0  0  0
  1  8  1  0  0  0  0
  1 19  1  0  0  0  0
  2  8  2  0  0  0  0
  3  5  1  0  0  0  0
  3 17  1  0  0  0  0
  3 18  1  0  0  0  0
  4  5  1  0  0  0  0
  4  6  1  0  0  0  0
  4  7  1  0  0  0  0
  4  9  1  0  0  0  0
  5  8  1  0  0  0  0
  5 10  1  0  0  0  0
  6 11  1  0  0  0  0
  6 12  1  0  0  0  0
  6 13  1  0  0  0  0
  7 14  1  0  0  0  0
  7 15  1  0  0  0  0
  7 16  1  0  0  0  0
M  END
$$$$
6288
  MOE2011           3D

 17 16  0  0  1  0  0  0  0  0999 V2000
   -1.6320   -1.2000    0.7590 O   0  0  0  0  0  0  0  0  0  0  0  0
    0.8230   -1.6220    0.0060 O   0  0  0  0  0  0  0  0  0  0  0  0
    2.2660    0.0580   -0.3000 O   0  0  0  0  0  0  0  0  0  0  0  0
    0.3130    1.9730    0.3580 N   0  0  0  0  0  0  0  0  0  0  0  0
   -1.3560    0.1220    0.2810 C   0  0  1  0  0  0  0  0  0  0  0  0
    0.0670    0.5590    0.6940 C   0  0  1  0  0  0  0  0  0  0  0  0
   -1.6270    0.1670   -1.2200 C   0  0  0  0  0  0  0  0  0  0  0  0
    1.1580   -0.3090    0.0600 C   0  0  0  0  0  0  0  0  0  0  0  0
    0.1840    0.4300    1.7770 H   0  0  0  0  0  0  0  0  0  0  0  0
   -2.0820    0.7770    0.7780 H   0  0  0  0  0  0  0  0  0  0  0  0
   -1.4850    1.1720   -1.6280 H   0  0  0  0  0  0  0  0  0  0  0  0
   -2.6580   -0.1440   -1.4240 H   0  0  0  0  0  0  0  0  0  0  0  0
   -0.9830   -0.5290   -1.7670 H   0  0  0  0  0  0  0  0  0  0  0  0
    1.2970    2.1900    0.5330 H   0  0  0  0  0  0  0  0  0  0  0  0
   -0.2320    2.5730    0.9760 H   0  0  0  0  0  0  0  0  0  0  0  0
   -0.8830   -1.7630    0.4590 H   0  0  0  0  0  0  0  0  0  0  0  0
    1.6220   -2.0560   -0.3690 H   0  0  0  0  0  0  0  0  0  0  0  0
  1  5  1  0  0  0  0
  1 16  1  0  0  0  0
  2  8  1  0  0  0  0
  2 17  1  0  0  0  0
  3  8  2  0  0  0  0
  4  6  1  0  0  0  0
  4 14  1  0  0  0  0
  4 15  1  0  0  0  0
  5  6  1  0  0  0  0
  5  7  1  0  0  0  0
  5 10  1  0  0  0  0
  6  8  1  0  0  0  0
  6  9  1  0  0  0  0
  7 11  1  0  0  0  0
  7 12  1  0  0  0  0
  7 13  1  0  0  0  0
M  END
$$$$
5951
  MOE2011           3D

 14 13  0  0  1  0  0  0  0  0999 V2000
    2.0920    0.9430   -0.1080 O   0  0  0  0  0  0  0  0  0  0  0  0
   -0.9350    1.5080    0.6390 O   0  0  0  0  0  0  0  0  0  0  0  0
   -1.7380    0.0390   -0.8480 O   0  0  0  0  0  0  0  0  0  0  0  0
   -0.1600   -1.9810    0.3430 N   0  0  0  0  0  0  0  0  0  0  0  0
    0.2520   -0.5650    0.4470 C   0  0  1  0  0  0  0  0  0  0  0  0
    1.4720   -0.2970   -0.4390 C   0  0  0  0  0  0  0  0  0  0  0  0
   -0.9010    0.3230   -0.0030 C   0  0  0  0  0  0  0  0  0  0  0  0
    0.4730   -0.3460    1.4980 H   0  0  0  0  0  0  0  0  0  0  0  0
    2.2280   -1.0800   -0.3140 H   0  0  0  0  0  0  0  0  0  0  0  0
    1.1990   -0.2610   -1.4990 H   0  0  0  0  0  0  0  0  0  0  0  0
   -0.5220   -2.1470   -0.6000 H   0  0  0  0  0  0  0  0  0  0  0  0
   -0.9570   -2.1430    0.9610 H   0  0  0  0  0  0  0  0  0  0  0  0
    2.4340    0.8720    0.8000 H   0  0  0  0  0  0  0  0  0  0  0  0
   -1.6940    1.9920    0.2520 H   0  0  0  0  0  0  0  0  0  0  0  0
  1  6  1  0  0  0  0
  1 13  1  0  0  0  0
  2  7  1  0  0  0  0
  2 14  1  0  0  0  0
  3  7  2  0  0  0  0
  4  5  1  0  0  0  0
  4 11  1  0  0  0  0
  4 12  1  0  0  0  0
  5  6  1  0  0  0  0
  5  7  1  0  0  0  0
  5  8  1  0  0  0  0
  6  9  1  0  0  0  0
  6 10  1  0  0  0  0
M  END
$$$$
6322
  MOE2011           3D

 26 25  0  0  1  0  0  0  0  0999 V2000
   -1.9500   -1.9550   -0.2810 O   0  0  0  0  0  0  0  0  0  0  0  0
   -3.3540   -0.8850    1.0840 O   0  0  0  0  0  0  0  0  0  0  0  0
   -2.9730    1.5680   -0.2190 N   0  0  0  0  0  0  0  0  0  0  0  0
    1.9770   -0.1930    0.1490 N   0  0  0  0  0  0  0  0  0  0  0  0
    3.7980   -1.5280   -0.1230 N   0  0  0  0  0  0  0  0  0  0  0  0
    4.2000    0.6500    0.2220 N   0  0  0  0  0  0  0  0  0  0  0  0
   -0.7610    0.6460   -0.8370 C   0  0  0  0  0  0  0  0  0  0  0  0
   -0.1010    1.0150    0.5020 C   0  0  0  0  0  0  0  0  0  0  0  0
   -2.2690    0.3800   -0.7340 C   0  0  1  0  0  0  0  0  0  0  0  0
    1.4190    1.1350    0.3860 C   0  0  0  0  0  0  0  0  0  0  0  0
   -2.5810   -0.8370    0.1390 C   0  0  0  0  0  0  0  0  0  0  0  0
    3.2560   -0.3100    0.0920 C   0  0  0  0  0  0  0  0  0  0  0  0
   -0.2710   -0.2410   -1.2560 H   0  0  0  0  0  0  0  0  0  0  0  0
   -0.5860    1.4590   -1.5540 H   0  0  0  0  0  0  0  0  0  0  0  0
   -0.4970    1.9750    0.8520 H   0  0  0  0  0  0  0  0  0  0  0  0
   -0.3450    0.2660    1.2640 H   0  0  0  0  0  0  0  0  0  0  0  0
   -2.6720    0.1590   -1.7290 H   0  0  0  0  0  0  0  0  0  0  0  0
    1.6780    1.8210   -0.4290 H   0  0  0  0  0  0  0  0  0  0  0  0
    1.8050    1.5470    1.3270 H   0  0  0  0  0  0  0  0  0  0  0  0
   -3.9430    1.3220   -0.0170 H   0  0  0  0  0  0  0  0  0  0  0  0
   -2.9960    2.2920   -0.9360 H   0  0  0  0  0  0  0  0  0  0  0  0
   -2.2310   -2.6520    0.3480 H   0  0  0  0  0  0  0  0  0  0  0  0
    3.1630   -2.3070   -0.2340 H   0  0  0  0  0  0  0  0  0  0  0  0
    4.7880   -1.6970   -0.1780 H   0  0  0  0  0  0  0  0  0  0  0  0
    5.1830    0.4370    0.1650 H   0  0  0  0  0  0  0  0  0  0  0  0
    3.9420    1.6130    0.3810 H   0  0  0  0  0  0  0  0  0  0  0  0
  1 11  1  0  0  0  0
  1 22  1  0  0  0  0
  2 11  2  0  0  0  0
  3  9  1  0  0  0  0
  3 20  1  0  0  0  0
  3 21  1  0  0  0  0
  4 10  1  0  0  0  0
  4 12  2  0  0  0  0
  5 12  1  0  0  0  0
  5 23  1  0  0  0  0
  5 24  1  0  0  0  0
  6 12  1  0  0  0  0
  6 25  1  0  0  0  0
  6 26  1  0  0  0  0
  7  8  1  0  0  0  0
  7  9  1  0  0  0  0
  7 13  1  0  0  0  0
  7 14  1  0  0  0  0
  8 10  1  0  0  0  0
  8 15  1  0  0  0  0
  8 16  1  0  0  0  0
  9 11  1  0  0  0  0
  9 17  1  0  0  0  0
 10 18  1  0  0  0  0
 10 19  1  0  0  0  0
M  END
$$$$
5961
  MOE2011           3D

 20 19  0  0  1  0  0  0  0  0999 V2000
   -2.1090    1.6430    0.5660 O   0  0  0  0  0  0  0  0  0  0  0  0
   -2.5420    0.3630   -1.2180 O   0  0  0  0  0  0  0  0  0  0  0  0
    2.8720    0.4710    1.0050 O   0  0  0  0  0  0  0  0  0  0  0  0
   -1.4810   -1.9150   -0.0120 N   0  0  0  0  0  0  0  0  0  0  0  0
    3.2030    0.2920   -1.2290 N   0  0  0  0  0  0  0  0  0  0  0  0
    0.1580   -0.2770    0.8930 C   0  0  0  0  0  0  0  0  0  0  0  0
   -1.3210   -0.6170    0.6740 C   0  0  1  0  0  0  0  0  0  0  0  0
    0.9890   -0.1780   -0.3890 C   0  0  0  0  0  0  0  0  0  0  0  0
   -2.0460    0.4760   -0.1070 C   0  0  0  0  0  0  0  0  0  0  0  0
    2.4230    0.2220   -0.1070 C   0  0  0  0  0  0  0  0  0  0  0  0
    0.2310    0.6730    1.4400 H   0  0  0  0  0  0  0  0  0  0  0  0
    0.6060   -1.0360    1.5500 H   0  0  0  0  0  0  0  0  0  0  0  0
   -1.8180   -0.7030    1.6480 H   0  0  0  0  0  0  0  0  0  0  0  0
    1.0080   -1.1410   -0.9120 H   0  0  0  0  0  0  0  0  0  0  0  0
    0.5600    0.5680   -1.0670 H   0  0  0  0  0  0  0  0  0  0  0  0
   -1.2360   -1.8000   -0.9980 H   0  0  0  0  0  0  0  0  0  0  0  0
   -2.4740   -2.1550   -0.0280 H   0  0  0  0  0  0  0  0  0  0  0  0
    2.8560    0.0930   -2.1590 H   0  0  0  0  0  0  0  0  0  0  0  0
    4.1740    0.5550   -1.1240 H   0  0  0  0  0  0  0  0  0  0  0  0
   -2.5980    2.2570   -0.0220 H   0  0  0  0  0  0  0  0  0  0  0  0
  1  9  1  0  0  0  0
  1 20  1  0  0  0  0
  2  9  2  0  0  0  0
  3 10  2  0  0  0  0
  4  7  1  0  0  0  0
  4 16  1  0  0  0  0
  4 17  1  0  0  0  0
  5 10  1  0  0  0  0
  5 18  1  0  0  0  0
  5 19  1  0  0  0  0
  6  7  1  0  0  0  0
  6  8  1  0  0  0  0
  6 11  1  0  0  0  0
  6 12  1  0  0  0  0
  7  9  1  0  0  0  0
  7 13  1  0  0  0  0
  8 10  1  0  0  0  0
  8 14  1  0  0  0  0
  8 15  1  0  0  0  0
M  END
$$$$
145742
  MOE2011           3D

 17 17  0  0  1  0  0  0  0  0999 V2000
    2.1680   -0.9970   -0.1540 O   0  0  0  0  0  0  0  0  0  0  0  0
    1.7390    1.1850   -0.4030 O   0  0  0  0  0  0  0  0  0  0  0  0
   -0.8090    0.9680    0.7100 N   0  0  3  0  0  0  0  0  0  0  0  0
    0.0530   -0.2370    0.6710 C   0  0  1  0  0  0  0  0  0  0  0  0
   -0.7580   -1.2980   -0.0710 C   0  0  0  0  0  0  0  0  0  0  0  0
   -2.0840   -0.6280   -0.3970 C   0  0  0  0  0  0  0  0  0  0  0  0
   -1.7430    0.8450   -0.4070 C   0  0  0  0  0  0  0  0  0  0  0  0
    1.3700    0.0830   -0.0240 C   0  0  0  0  0  0  0  0  0  0  0  0
    0.2810   -0.5420    1.6980 H   0  0  0  0  0  0  0  0  0  0  0  0
   -0.9210   -2.1890    0.5450 H   0  0  0  0  0  0  0  0  0  0  0  0
   -0.2690   -1.6160   -0.9990 H   0  0  0  0  0  0  0  0  0  0  0  0
   -2.4970   -0.9700   -1.3500 H   0  0  0  0  0  0  0  0  0  0  0  0
   -2.8160   -0.8470    0.3900 H   0  0  0  0  0  0  0  0  0  0  0  0
   -1.2580    1.1290   -1.3480 H   0  0  0  0  0  0  0  0  0  0  0  0
   -2.6260    1.4750   -0.2640 H   0  0  0  0  0  0  0  0  0  0  0  0
   -0.2340    1.8080    0.5990 H   0  0  0  0  0  0  0  0  0  0  0  0
    2.9840   -0.6630   -0.5830 H   0  0  0  0  0  0  0  0  0  0  0  0
  1  8  1  0  0  0  0
  1 17  1  0  0  0  0
  2  8  2  0  0  0  0
  3  4  1  0  0  0  0
  3  7  1  0  0  0  0
  3 16  1  0  0  0  0
  4  5  1  0  0  0  0
  4  8  1  0  0  0  0
  4  9  1  0  0  0  0
  5  6  1  0  0  0  0
  5 10  1  0  0  0  0
  5 11  1  0  0  0  0
  6  7  1  0  0  0  0
  6 12  1  0  0  0  0
  6 13  1  0  0  0  0
  7 14  1  0  0  0  0
  7 15  1  0  0  0  0
M  END
$$$$
6267
  MOE2011           3D

 17 16  0  0  1  0  0  0  0  0999 V2000
    0.8100   -1.7160    0.5800 O   0  0  0  0  0  0  0  0  0  0  0  0
    2.2250   -0.7940   -0.8920 O   0  0  0  0  0  0  0  0  0  0  0  0
   -2.0350   -0.8890   -0.7140 O   0  0  0  0  0  0  0  0  0  0  0  0
    1.7020    1.7490    0.1950 N   0  0  0  0  0  0  0  0  0  0  0  0
   -2.3280    0.4920    1.0620 N   0  0  0  0  0  0  0  0  0  0  0  0
    0.7110    0.6650    0.3740 C   0  0  1  0  0  0  0  0  0  0  0  0
   -0.5170    0.9640   -0.4810 C   0  0  0  0  0  0  0  0  0  0  0  0
    1.3410   -0.6560   -0.0610 C   0  0  0  0  0  0  0  0  0  0  0  0
   -1.6850    0.0980   -0.0760 C   0  0  0  0  0  0  0  0  0  0  0  0
    0.4690    0.6080    1.4400 H   0  0  0  0  0  0  0  0  0  0  0  0
   -0.8240    2.0120   -0.3680 H   0  0  0  0  0  0  0  0  0  0  0  0
   -0.3190    0.8000   -1.5480 H   0  0  0  0  0  0  0  0  0  0  0  0
    2.0500    1.7160   -0.7680 H   0  0  0  0  0  0  0  0  0  0  0  0
    2.5210    1.5510    0.7730 H   0  0  0  0  0  0  0  0  0  0  0  0
   -2.0630    1.3070    1.6000 H   0  0  0  0  0  0  0  0  0  0  0  0
   -3.1140   -0.0590    1.3850 H   0  0  0  0  0  0  0  0  0  0  0  0
    1.2480   -2.5030    0.1950 H   0  0  0  0  0  0  0  0  0  0  0  0
  1  8  1  0  0  0  0
  1 17  1  0  0  0  0
  2  8  2  0  0  0  0
  3  9  2  0  0  0  0
  4  6  1  0  0  0  0
  4 13  1  0  0  0  0
  4 14  1  0  0  0  0
  5  9  1  0  0  0  0
  5 15  1  0  0  0  0
  5 16  1  0  0  0  0
  6  7  1  0  0  0  0
  6  8  1  0  0  0  0
  6 10  1  0  0  0  0
  7  9  1  0  0  0  0
  7 11  1  0  0  0  0
  7 12  1  0  0  0  0
M  END
$$$$
6137
  MOE2011           3D

 20 19  0  0  1  0  0  0  0  0999 V2000
    2.5330    0.5820    0.7630 S   0  0  0  0  0  0  0  0  0  0  0  0
   -1.3610    1.5000   -0.8160 O   0  0  0  0  0  0  0  0  0  0  0  0
   -2.8420    0.4620    0.4800 O   0  0  0  0  0  0  0  0  0  0  0  0
   -1.2330   -1.8490    0.4340 N   0  0  0  0  0  0  0  0  0  0  0  0
    0.4860   -0.6180   -0.7810 C   0  0  0  0  0  0  0  0  0  0  0  0
   -0.6010   -0.5180    0.3020 C   0  0  1  0  0  0  0  0  0  0  0  0
    1.5350    0.5000   -0.7640 C   0  0  0  0  0  0  0  0  0  0  0  0
   -1.7160    0.4910    0.0000 C   0  0  0  0  0  0  0  0  0  0  0  0
    3.5050   -0.9330    0.5760 C   0  0  0  0  0  0  0  0  0  0  0  0
    1.0080   -1.5810   -0.7030 H   0  0  0  0  0  0  0  0  0  0  0  0
    0.0110   -0.6220   -1.7720 H   0  0  0  0  0  0  0  0  0  0  0  0
   -0.1780   -0.2440    1.2730 H   0  0  0  0  0  0  0  0  0  0  0  0
    1.0660    1.4790   -0.8920 H   0  0  0  0  0  0  0  0  0  0  0  0
    2.2180    0.3740   -1.6110 H   0  0  0  0  0  0  0  0  0  0  0  0
   -2.0290   -1.7690    1.0720 H   0  0  0  0  0  0  0  0  0  0  0  0
   -0.5770   -2.4940    0.8730 H   0  0  0  0  0  0  0  0  0  0  0  0
    2.8690   -1.8150    0.6770 H   0  0  0  0  0  0  0  0  0  0  0  0
    4.2630   -0.9680    1.3630 H   0  0  0  0  0  0  0  0  0  0  0  0
    4.0120   -0.9480   -0.3920 H   0  0  0  0  0  0  0  0  0  0  0  0
   -2.1650    2.0550   -0.8880 H   0  0  0  0  0  0  0  0  0  0  0  0
  1  7  1  0  0  0  0
  1  9  1  0  0  0  0
  2  8  1  0  0  0  0
  2 20  1  0  0  0  0
  3  8  2  0  0  0  0
  4  6  1  0  0  0  0
  4 15  1  0  0  0  0
  4 16  1  0  0  0  0
  5  6  1  0  0  0  0
  5  7  1  0  0  0  0
  5 10  1  0  0  0  0
  5 11  1  0  0  0  0
  6  8  1  0  0  0  0
  6 12  1  0  0  0  0
  7 13  1  0  0  0  0
  7 14  1  0  0  0  0
  9 17  1  0  0  0  0
  9 18  1  0  0  0  0
  9 19  1  0  0  0  0
M  END
$$$$
6106
  MOE2011           3D

 22 21  0  0  1  0  0  0  0  0999 V2000
    1.1750   -1.2820    1.3540 O   0  0  0  0  0  0  0  0  0  0  0  0
    1.8820   -1.0170   -0.7540 O   0  0  0  0  0  0  0  0  0  0  0  0
    1.6790    1.8200    0.0240 N   0  0  0  0  0  0  0  0  0  0  0  0
   -1.8080    0.1530   -0.4060 C   0  0  0  0  0  0  0  0  0  0  0  0
   -0.5210    0.9620   -0.6800 C   0  0  0  0  0  0  0  0  0  0  0  0
    0.6410    0.8090    0.3160 C   0  0  1  0  0  0  0  0  0  0  0  0
   -2.3530    0.3620    1.0060 C   0  0  0  0  0  0  0  0  0  0  0  0
   -1.6690   -1.3370   -0.7140 C   0  0  0  0  0  0  0  0  0  0  0  0
    1.2980   -0.5620    0.2190 C   0  0  0  0  0  0  0  0  0  0  0  0
   -2.5630    0.5420   -1.1030 H   0  0  0  0  0  0  0  0  0  0  0  0
   -0.1730    0.7300   -1.6960 H   0  0  0  0  0  0  0  0  0  0  0  0
   -0.8160    2.0210   -0.7000 H   0  0  0  0  0  0  0  0  0  0  0  0
    0.3030    0.9800    1.3420 H   0  0  0  0  0  0  0  0  0  0  0  0
   -1.7090   -0.0970    1.7630 H   0  0  0  0  0  0  0  0  0  0  0  0
   -2.4480    1.4290    1.2340 H   0  0  0  0  0  0  0  0  0  0  0  0
   -3.3470   -0.0890    1.1040 H   0  0  0  0  0  0  0  0  0  0  0  0
   -1.2180   -1.4960   -1.6990 H   0  0  0  0  0  0  0  0  0  0  0  0
   -1.0650   -1.8590    0.0320 H   0  0  0  0  0  0  0  0  0  0  0  0
   -2.6540   -1.8160   -0.7210 H   0  0  0  0  0  0  0  0  0  0  0  0
    1.2580    2.7470    0.0020 H   0  0  0  0  0  0  0  0  0  0  0  0
    2.0500    1.6530   -0.9140 H   0  0  0  0  0  0  0  0  0  0  0  0
    1.6510   -2.1200    1.1730 H   0  0  0  0  0  0  0  0  0  0  0  0
  1  9  1  0  0  0  0
  1 22  1  0  0  0  0
  2  9  2  0  0  0  0
  3  6  1  0  0  0  0
  3 20  1  0  0  0  0
  3 21  1  0  0  0  0
  4  5  1  0  0  0  0
  4  7  1  0  0  0  0
  4  8  1  0  0  0  0
  4 10  1  0  0  0  0
  5  6  1  0  0  0  0
  5 11  1  0  0  0  0
  5 12  1  0  0  0  0
  6  9  1  0  0  0  0
  6 13  1  0  0  0  0
  7 14  1  0  0  0  0
  7 15  1  0  0  0  0
  7 16  1  0  0  0  0
  8 17  1  0  0  0  0
  8 18  1  0  0  0  0
  8 19  1  0  0  0  0
M  END
$$$$
5962
  MOE2011           3D

 24 23  0  0  1  0  0  0  0  0999 V2000
   -2.7200   -1.6200   -0.3450 O   0  0  0  0  0  0  0  0  0  0  0  0
   -3.6460    0.1720    0.6220 O   0  0  0  0  0  0  0  0  0  0  0  0
   -1.5290    1.8320   -0.0700 N   0  0  0  0  0  0  0  0  0  0  0  0
    4.7760   -0.5110    0.3170 N   0  0  0  0  0  0  0  0  0  0  0  0
    1.1220    0.3610   -0.3110 C   0  0  0  0  0  0  0  0  0  0  0  0
   -0.1920   -0.2370    0.2050 C   0  0  0  0  0  0  0  0  0  0  0  0
    2.3310   -0.3680    0.2830 C   0  0  0  0  0  0  0  0  0  0  0  0
   -1.4340    0.4020   -0.4300 C   0  0  1  0  0  0  0  0  0  0  0  0
    3.6410    0.2090   -0.2490 C   0  0  0  0  0  0  0  0  0  0  0  0
   -2.7030   -0.3210    0.0220 C   0  0  0  0  0  0  0  0  0  0  0  0
    1.1790    1.4250   -0.0540 H   0  0  0  0  0  0  0  0  0  0  0  0
    1.1520    0.2870   -1.4050 H   0  0  0  0  0  0  0  0  0  0  0  0
   -0.2370   -0.1420    1.2980 H   0  0  0  0  0  0  0  0  0  0  0  0
   -0.1910   -1.3150   -0.0030 H   0  0  0  0  0  0  0  0  0  0  0  0
    2.2710   -1.4360    0.0380 H   0  0  0  0  0  0  0  0  0  0  0  0
    2.3040   -0.2860    1.3770 H   0  0  0  0  0  0  0  0  0  0  0  0
   -1.3880    0.3320   -1.5220 H   0  0  0  0  0  0  0  0  0  0  0  0
    3.7200    1.2710    0.0060 H   0  0  0  0  0  0  0  0  0  0  0  0
    3.6740    0.1240   -1.3410 H   0  0  0  0  0  0  0  0  0  0  0  0
   -1.6250    1.9110    0.9440 H   0  0  0  0  0  0  0  0  0  0  0  0
   -2.4070    2.2030   -0.4410 H   0  0  0  0  0  0  0  0  0  0  0  0
    4.7790   -0.4010    1.3310 H   0  0  0  0  0  0  0  0  0  0  0  0
    5.6420   -0.0910   -0.0170 H   0  0  0  0  0  0  0  0  0  0  0  0
   -3.5750   -1.9680   -0.0170 H   0  0  0  0  0  0  0  0  0  0  0  0
  1 10  1  0  0  0  0
  1 24  1  0  0  0  0
  2 10  2  0  0  0  0
  3  8  1  0  0  0  0
  3 20  1  0  0  0  0
  3 21  1  0  0  0  0
  4  9  1  0  0  0  0
  4 22  1  0  0  0  0
  4 23  1  0  0  0  0
  5  6  1  0  0  0  0
  5  7  1  0  0  0  0
  5 11  1  0  0  0  0
  5 12  1  0  0  0  0
  6  8  1  0  0  0  0
  6 13  1  0  0  0  0
  6 14  1  0  0  0  0
  7  9  1  0  0  0  0
  7 15  1  0  0  0  0
  7 16  1  0  0  0  0
  8 10  1  0  0  0  0
  8 17  1  0  0  0  0
  9 18  1  0  0  0  0
  9 19  1  0  0  0  0
M  END
$$$$
6306
  MOE2011           3D

 22 21  0  0  1  0  0  0  0  0999 V2000
    1.7110    1.0700   -1.2380 O   0  0  0  0  0  0  0  0  0  0  0  0
    2.3310    0.5330    0.8430 O   0  0  0  0  0  0  0  0  0  0  0  0
    0.5950   -1.6370    0.9650 N   0  0  0  0  0  0  0  0  0  0  0  0
   -0.8700   -0.1860   -0.4810 C   0  0  2  0  0  0  0  0  0  0  0  0
    0.5440   -0.7710   -0.2320 C   0  0  1  0  0  0  0  0  0  0  0  0
   -1.3790    0.6740    0.6980 C   0  0  0  0  0  0  0  0  0  0  0  0
   -1.8600   -1.3090   -0.8230 C   0  0  0  0  0  0  0  0  0  0  0  0
   -2.6580    1.4400    0.3800 C   0  0  0  0  0  0  0  0  0  0  0  0
    1.6060    0.3240   -0.1180 C   0  0  0  0  0  0  0  0  0  0  0  0
   -0.8100    0.4660   -1.3630 H   0  0  0  0  0  0  0  0  0  0  0  0
    0.8360   -1.3940   -1.0870 H   0  0  0  0  0  0  0  0  0  0  0  0
   -0.6130    1.4060    0.9770 H   0  0  0  0  0  0  0  0  0  0  0  0
   -1.5570    0.0490    1.5810 H   0  0  0  0  0  0  0  0  0  0  0  0
   -1.4630   -1.9490   -1.6180 H   0  0  0  0  0  0  0  0  0  0  0  0
   -2.0720   -1.9390    0.0470 H   0  0  0  0  0  0  0  0  0  0  0  0
   -2.8100   -0.9030   -1.1840 H   0  0  0  0  0  0  0  0  0  0  0  0
   -2.5360    2.0530   -0.5180 H   0  0  0  0  0  0  0  0  0  0  0  0
   -2.9110    2.1050    1.2120 H   0  0  0  0  0  0  0  0  0  0  0  0
   -3.5050    0.7650    0.2290 H   0  0  0  0  0  0  0  0  0  0  0  0
    0.4640   -1.0580    1.7960 H   0  0  0  0  0  0  0  0  0  0  0  0
    1.5440   -2.0050    1.0600 H   0  0  0  0  0  0  0  0  0  0  0  0
    2.4230    1.7170   -1.0480 H   0  0  0  0  0  0  0  0  0  0  0  0
  1  9  1  0  0  0  0
  1 22  1  0  0  0  0
  2  9  2  0  0  0  0
  3  5  1  0  0  0  0
  3 20  1  0  0  0  0
  3 21  1  0  0  0  0
  4  5  1  0  0  0  0
  4  6  1  0  0  0  0
  4  7  1  0  0  0  0
  4 10  1  0  0  0  0
  5  9  1  0  0  0  0
  5 11  1  0  0  0  0
  6  8  1  0  0  0  0
  6 12  1  0  0  0  0
  6 13  1  0  0  0  0
  7 14  1  0  0  0  0
  7 15  1  0  0  0  0
  7 16  1  0  0  0  0
  8 17  1  0  0  0  0
  8 18  1  0  0  0  0
  8 19  1  0  0  0  0
M  END
$$$$
6274
  MOE2011           3D

 20 20  0  0  1  0  0  0  0  0999 V2000
   -2.3460   -1.6930   -0.7280 O   0  0  0  0  0  0  0  0  0  0  0  0
   -1.3370   -1.1390    1.1910 O   0  0  0  0  0  0  0  0  0  0  0  0
    1.3800   -0.2700    0.8600 N   0  0  0  0  0  0  0  0  0  0  0  0
   -2.7310    1.2580   -0.6820 N   0  0  0  0  0  0  0  0  0  0  0  0
    3.1320    0.2590   -0.3880 N   0  0  0  0  0  0  0  0  0  0  0  0
   -0.3960    1.3640    0.1430 C   0  0  0  0  0  0  0  0  0  0  0  0
   -1.4480    0.5320   -0.6150 C   0  0  1  0  0  0  0  0  0  0  0  0
    0.9740    0.7790    0.0700 C   0  0  0  0  0  0  0  0  0  0  0  0
   -1.6860   -0.8190    0.0630 C   0  0  0  0  0  0  0  0  0  0  0  0
    2.0800    1.0850   -0.6930 C   0  0  0  0  0  0  0  0  0  0  0  0
    2.6820   -0.5400    0.5510 C   0  0  0  0  0  0  0  0  0  0  0  0
   -0.6830    1.4820    1.1970 H   0  0  0  0  0  0  0  0  0  0  0  0
   -0.3580    2.3760   -0.2810 H   0  0  0  0  0  0  0  0  0  0  0  0
   -1.0920    0.3340   -1.6330 H   0  0  0  0  0  0  0  0  0  0  0  0
    0.8050   -0.7550    1.5410 H   0  0  0  0  0  0  0  0  0  0  0  0
    2.1750    1.8580   -1.4440 H   0  0  0  0  0  0  0  0  0  0  0  0
   -2.5990    2.1390   -1.1790 H   0  0  0  0  0  0  0  0  0  0  0  0
   -3.0430    1.5050    0.2570 H   0  0  0  0  0  0  0  0  0  0  0  0
    3.2420   -1.3270    1.0370 H   0  0  0  0  0  0  0  0  0  0  0  0
   -2.4690   -2.4990   -0.1860 H   0  0  0  0  0  0  0  0  0  0  0  0
  1  9  1  0  0  0  0
  1 20  1  0  0  0  0
  2  9  2  0  0  0  0
  3  8  1  0  0  0  0
  3 11  1  0  0  0  0
  3 15  1  0  0  0  0
  4  7  1  0  0  0  0
  4 17  1  0  0  0  0
  4 18  1  0  0  0  0
  5 10  1  0  0  0  0
  5 11  2  0  0  0  0
  6  7  1  0  0  0  0
  6  8  1  0  0  0  0
  6 12  1  0  0  0  0
  6 13  1  0  0  0  0
  7  9  1  0  0  0  0
  7 14  1  0  0  0  0
  8 10  2  0  0  0  0
 10 16  1  0  0  0  0
 11 19  1  0  0  0  0
M  END
$$$$
750
  MOE2011           3D

 10  9  0  0  0  0  0  0  0  0999 V2000
   -1.6400    0.6740    0.0090 O   0  0  0  0  0  0  0  0  0  0  0  0
   -0.5720   -1.2940   -0.0140 O   0  0  0  0  0  0  0  0  0  0  0  0
    1.9400   -0.0660   -0.0080 N   0  0  0  0  0  0  0  0  0  0  0  0
    0.7360    0.7790    0.0040 C   0  0  0  0  0  0  0  0  0  0  0  0
   -0.5170   -0.0740   -0.0010 C   0  0  0  0  0  0  0  0  0  0  0  0
    0.7370    1.4170   -0.8840 H   0  0  0  0  0  0  0  0  0  0  0  0
    0.7410    1.3990    0.9050 H   0  0  0  0  0  0  0  0  0  0  0  0
    1.8990   -0.6820   -0.8220 H   0  0  0  0  0  0  0  0  0  0  0  0
    1.9030   -0.6980    0.7940 H   0  0  0  0  0  0  0  0  0  0  0  0
   -2.3790    0.0300    0.0040 H   0  0  0  0  0  0  0  0  0  0  0  0
  1  5  1  0  0  0  0
  1 10  1  0  0  0  0
  2  5  2  0  0  0  0
  3  4  1  0  0  0  0
  3  8  1  0  0  0  0
  3  9  1  0  0  0  0
  4  5  1  0  0  0  0
  4  6  1  0  0  0  0
  4  7  1  0  0  0  0
M  END
$$$$
6140
  MOE2011           3D

 23 23  0  0  1  0  0  0  0  0999 V2000
   -1.6040   -1.1840   -1.5630 O   0  0  0  0  0  0  0  0  0  0  0  0
   -2.6890   -1.2950    0.3920 O   0  0  0  0  0  0  0  0  0  0  0  0
   -2.9860    1.5910   -0.0160 N   0  0  0  0  0  0  0  0  0  0  0  0
   -0.7020    1.0690    0.8040 C   0  0  0  0  0  0  0  0  0  0  0  0
   -1.7390    0.8550   -0.3090 C   0  0  1  0  0  0  0  0  0  0  0  0
    0.6500    0.4780    0.4780 C   0  0  0  0  0  0  0  0  0  0  0  0
    1.0520   -0.7370    1.0510 C   0  0  0  0  0  0  0  0  0  0  0  0
    1.5130    1.1280   -0.4140 C   0  0  0  0  0  0  0  0  0  0  0  0
   -2.0770   -0.6270   -0.4290 C   0  0  0  0  0  0  0  0  0  0  0  0
    2.2950   -1.2890    0.7370 C   0  0  0  0  0  0  0  0  0  0  0  0
    2.7560    0.5740   -0.7260 C   0  0  0  0  0  0  0  0  0  0  0  0
    3.1460   -0.6340   -0.1510 C   0  0  0  0  0  0  0  0  0  0  0  0
   -1.0640    0.6490    1.7520 H   0  0  0  0  0  0  0  0  0  0  0  0
   -0.5650    2.1430    0.9890 H   0  0  0  0  0  0  0  0  0  0  0  0
   -1.3600    1.2140   -1.2730 H   0  0  0  0  0  0  0  0  0  0  0  0
    0.3980   -1.2630    1.7430 H   0  0  0  0  0  0  0  0  0  0  0  0
    1.2240    2.0710   -0.8730 H   0  0  0  0  0  0  0  0  0  0  0  0
   -2.7730    2.5680    0.1790 H   0  0  0  0  0  0  0  0  0  0  0  0
   -3.4070    1.2110    0.8340 H   0  0  0  0  0  0  0  0  0  0  0  0
    2.5980   -2.2310    1.1860 H   0  0  0  0  0  0  0  0  0  0  0  0
    3.4190    1.0850   -1.4190 H   0  0  0  0  0  0  0  0  0  0  0  0
    4.1140   -1.0650   -0.3940 H   0  0  0  0  0  0  0  0  0  0  0  0
   -1.8770   -2.1240   -1.5190 H   0  0  0  0  0  0  0  0  0  0  0  0
  1  9  1  0  0  0  0
  1 23  1  0  0  0  0
  2  9  2  0  0  0  0
  3  5  1  0  0  0  0
  3 18  1  0  0  0  0
  3 19  1  0  0  0  0
  4  5  1  0  0  0  0
  4  6  1  0  0  0  0
  4 13  1  0  0  0  0
  4 14  1  0  0  0  0
  5  9  1  0  0  0  0
  5 15  1  0  0  0  0
  6  7  2  0  0  0  0
  6  8  1  0  0  0  0
  7 10  1  0  0  0  0
  7 16  1  0  0  0  0
  8 11  2  0  0  0  0
  8 17  1  0  0  0  0
 10 12  2  0  0  0  0
 10 20  1  0  0  0  0
 11 12  1  0  0  0  0
 11 21  1  0  0  0  0
 12 22  1  0  0  0  0
M  END
$$$$
33032
  MOE2011           3D

 19 18  0  0  1  0  0  0  0  0999 V2000
    1.7130    1.5410   -0.8580 O   0  0  0  0  0  0  0  0  0  0  0  0
   -3.0950    0.6170    1.0760 O   0  0  0  0  0  0  0  0  0  0  0  0
    2.9950    0.6610    0.7410 O   0  0  0  0  0  0  0  0  0  0  0  0
   -2.9080   -0.2400   -0.9810 O   0  0  0  0  0  0  0  0  0  0  0  0
    1.5750   -1.7610    0.6900 N   0  0  0  0  0  0  0  0  0  0  0  0
   -0.1050   -0.6350   -0.7210 C   0  0  0  0  0  0  0  0  0  0  0  0
    1.3890   -0.8030   -0.4140 C   0  0  1  0  0  0  0  0  0  0  0  0
   -0.9320   -0.1020    0.4540 C   0  0  0  0  0  0  0  0  0  0  0  0
    2.1000    0.5100   -0.0790 C   0  0  0  0  0  0  0  0  0  0  0  0
   -2.3790    0.0660    0.0740 C   0  0  0  0  0  0  0  0  0  0  0  0
   -0.5160   -1.6030   -1.0380 H   0  0  0  0  0  0  0  0  0  0  0  0
   -0.2290    0.0350   -1.5820 H   0  0  0  0  0  0  0  0  0  0  0  0
    1.8940   -1.2030   -1.3010 H   0  0  0  0  0  0  0  0  0  0  0  0
   -0.8890   -0.7950    1.3000 H   0  0  0  0  0  0  0  0  0  0  0  0
   -0.5520    0.8750    0.7710 H   0  0  0  0  0  0  0  0  0  0  0  0
    2.5620   -1.7760    0.9540 H   0  0  0  0  0  0  0  0  0  0  0  0
    1.3420   -2.7000    0.3710 H   0  0  0  0  0  0  0  0  0  0  0  0
    2.2660    2.2970   -0.5690 H   0  0  0  0  0  0  0  0  0  0  0  0
   -4.0110    0.6760    0.7310 H   0  0  0  0  0  0  0  0  0  0  0  0
  1  9  1  0  0  0  0
  1 18  1  0  0  0  0
  2 10  1  0  0  0  0
  2 19  1  0  0  0  0
  3  9  2  0  0  0  0
  4 10  2  0  0  0  0
  5  7  1  0  0  0  0
  5 16  1  0  0  0  0
  5 17  1  0  0  0  0
  6  7  1  0  0  0  0
  6  8  1  0  0  0  0
  6 11  1  0  0  0  0
  6 12  1  0  0  0  0
  7  9  1  0  0  0  0
  7 13  1  0  0  0  0
  8 10  1  0  0  0  0
  8 14  1  0  0  0  0
  8 15  1  0  0  0  0
M  END
$$$$
5960
  MOE2011           3D

 16 15  0  0  1  0  0  0  0  0999 V2000
    2.4990   -1.2040    0.4660 O   0  0  0  0  0  0  0  0  0  0  0  0
   -2.5800    0.3630   -1.0600 O   0  0  0  0  0  0  0  0  0  0  0  0
    0.8550   -1.4670   -1.0300 O   0  0  0  0  0  0  0  0  0  0  0  0
   -1.8600   -0.7980    0.7110 O   0  0  0  0  0  0  0  0  0  0  0  0
    1.7570    1.4230    0.7330 N   0  0  0  0  0  0  0  0  0  0  0  0
    0.7130    0.3880    0.5900 C   0  0  1  0  0  0  0  0  0  0  0  0
   -0.4480    0.9550   -0.2270 C   0  0  0  0  0  0  0  0  0  0  0  0
    1.3260   -0.8310   -0.1000 C   0  0  0  0  0  0  0  0  0  0  0  0
   -1.6580    0.0690   -0.1220 C   0  0  0  0  0  0  0  0  0  0  0  0
    0.3830    0.0720    1.5860 H   0  0  0  0  0  0  0  0  0  0  0  0
   -0.1690    1.0500   -1.2840 H   0  0  0  0  0  0  0  0  0  0  0  0
   -0.7410    1.9420    0.1500 H   0  0  0  0  0  0  0  0  0  0  0  0
    2.5740    0.9830    1.1670 H   0  0  0  0  0  0  0  0  0  0  0  0
    1.4400    2.1400    1.3840 H   0  0  0  0  0  0  0  0  0  0  0  0
    2.7850   -1.9880   -0.0480 H   0  0  0  0  0  0  0  0  0  0  0  0
   -3.3170   -0.2640   -0.9030 H   0  0  0  0  0  0  0  0  0  0  0  0
  1  8  1  0  0  0  0
  1 15  1  0  0  0  0
  2  9  1  0  0  0  0
  2 16  1  0  0  0  0
  3  8  2  0  0  0  0
  4  9  2  0  0  0  0
  5  6  1  0  0  0  0
  5 13  1  0  0  0  0
  5 14  1  0  0  0  0
  6  7  1  0  0  0  0
  6  8  1  0  0  0  0
  6 10  1  0  0  0  0
  7  9  1  0  0  0  0
  7 11  1  0  0  0  0
  7 12  1  0  0  0  0
M  END
$$$$
5862
  MOE2011           3D

 14 13  0  0  1  0  0  0  0  0999 V2000
    2.6290    0.8020   -0.4570 S   0  0  0  0  0  0  0  0  0  0  0  0
   -1.9020    0.5920    0.5490 O   0  0  0  0  0  0  0  0  0  0  0  0
   -0.4670    1.5490   -0.8770 O   0  0  0  0  0  0  0  0  0  0  0  0
   -0.4660   -1.7000    0.5150 N   0  0  0  0  0  0  0  0  0  0  0  0
    0.2690   -0.4200    0.4140 C   0  0  1  0  0  0  0  0  0  0  0  0
    1.4570   -0.5940   -0.5390 C   0  0  0  0  0  0  0  0  0  0  0  0
   -0.6990    0.6610   -0.0720 C   0  0  0  0  0  0  0  0  0  0  0  0
    0.6090   -0.1340    1.4160 H   0  0  0  0  0  0  0  0  0  0  0  0
    2.0250   -1.4950   -0.2800 H   0  0  0  0  0  0  0  0  0  0  0  0
    1.1220   -0.6970   -1.5770 H   0  0  0  0  0  0  0  0  0  0  0  0
   -1.3350   -1.5190    1.0260 H   0  0  0  0  0  0  0  0  0  0  0  0
    0.0680   -2.3570    1.0830 H   0  0  0  0  0  0  0  0  0  0  0  0
    1.7730    1.7300   -0.9220 H   0  0  0  0  0  0  0  0  0  0  0  0
   -2.4230    1.3310    0.1690 H   0  0  0  0  0  0  0  0  0  0  0  0
  1  6  1  0  0  0  0
  1 13  1  0  0  0  0
  2  7  1  0  0  0  0
  2 14  1  0  0  0  0
  3  7  2  0  0  0  0
  4  5  1  0  0  0  0
  4 11  1  0  0  0  0
  4 12  1  0  0  0  0
  5  6  1  0  0  0  0
  5  7  1  0  0  0  0
  5  8  1  0  0  0  0
  6  9  1  0  0  0  0
  6 10  1  0  0  0  0
M  END
$$$$
5950
  MOE2011           3D

 13 12  0  0  1  0  0  0  0  0999 V2000
    1.5360   -0.8370    0.6240 O   0  0  0  0  0  0  0  0  0  0  0  0
    1.2100    0.9350   -0.7020 O   0  0  0  0  0  0  0  0  0  0  0  0
   -1.4440    1.1730    0.2560 N   0  0  0  0  0  0  0  0  0  0  0  0
   -0.7280   -0.1050    0.3990 C   0  0  1  0  0  0  0  0  0  0  0  0
   -1.3370   -1.1670   -0.5080 C   0  0  0  0  0  0  0  0  0  0  0  0
    0.7410    0.0890    0.0440 C   0  0  0  0  0  0  0  0  0  0  0  0
   -0.7970   -0.4120    1.4480 H   0  0  0  0  0  0  0  0  0  0  0  0
   -0.8100   -2.1210   -0.3970 H   0  0  0  0  0  0  0  0  0  0  0  0
   -2.3910   -1.3360   -0.2660 H   0  0  0  0  0  0  0  0  0  0  0  0
   -1.2700   -0.8800   -1.5640 H   0  0  0  0  0  0  0  0  0  0  0  0
   -2.4500    1.0140    0.2930 H   0  0  0  0  0  0  0  0  0  0  0  0
   -1.2460    1.5660   -0.6660 H   0  0  0  0  0  0  0  0  0  0  0  0
    2.4410   -0.6160    0.3200 H   0  0  0  0  0  0  0  0  0  0  0  0
  1  6  1  0  0  0  0
  1 13  1  0  0  0  0
  2  6  2  0  0  0  0
  3  4  1  0  0  0  0
  3 11  1  0  0  0  0
  3 12  1  0  0  0  0
  4  5  1  0  0  0  0
  4  6  1  0  0  0  0
  4  7  1  0  0  0  0
  5  8  1  0  0  0  0
  5  9  1  0  0  0  0
  5 10  1  0  0  0  0
M  END
$$$$
